<?xml version="1.0" encoding="UTF-8"?>

<!-- generated on 2025-11-20 15:03:03 by Eclipse SUMO netedit Version 1.21.0
<neteditConfiguration xmlns:xsi="http://www.w3.org/2001/XMLSchema-instance" xsi:noNamespaceSchemaLocation="http://sumo.dlr.de/xsd/neteditConfiguration.xsd">

    <input>
        <sumo-net-file value="D:\sumo\sumo-win64-1.21.0\sumo-1.21.0\file\test.net.xml"/>
    </input>

    <output>
        <output-file value="D:\sumo\sumo-win64-1.21.0\sumo-1.21.0\file\test.net.xml"/>
    </output>

    <processing>
        <geometry.min-radius.fix.railways value="false"/>
        <geometry.max-grade.fix value="false"/>
        <offset.disable-normalization value="true"/>
        <lefthand value="0"/>
    </processing>

    <junctions>
        <no-turnarounds value="true"/>
        <junctions.corner-detail value="5"/>
        <junctions.limit-turn-speed value="5.50"/>
        <rectangular-lane-cut value="0"/>
    </junctions>

    <pedestrian>
        <walkingareas value="0"/>
    </pedestrian>

</neteditConfiguration>
-->

<net version="1.20" junctionCornerDetail="5" limitTurnSpeed="5.50" xmlns:xsi="http://www.w3.org/2001/XMLSchema-instance" xsi:noNamespaceSchemaLocation="http://sumo.dlr.de/xsd/net_file.xsd">

    <location netOffset="0.00,0.00" convBoundary="0.00,-50.00,1600.00,0.00" origBoundary="-10000000000.00,-10000000000.00,10000000000.00,10000000000.00" projParameter="!"/>

    <edge id=":J1_0" function="internal">
        <lane id=":J1_0_0" index="0" speed="23.00" length="3.31" shape="450.53,-11.53 451.50,-11.34 452.16,-11.24 452.83,-11.21 453.82,-11.20"/>
    </edge>
    <edge id=":J1_1" function="internal">
        <lane id=":J1_1_0" index="0" speed="25.00" length="3.32" shape="450.50,-8.00 453.82,-8.00"/>
        <lane id=":J1_1_1" index="1" speed="31.00" length="3.32" shape="450.50,-4.80 453.82,-4.80"/>
        <lane id=":J1_1_2" index="2" speed="34.00" length="3.32" shape="450.50,-1.60 453.82,-1.60"/>
    </edge>
    <edge id=":J2_0" function="internal">
        <lane id=":J2_0_0" index="0" speed="23.00" length="3.31" shape="1346.18,-11.20 1347.17,-11.21 1347.84,-11.24 1348.50,-11.34 1349.47,-11.53"/>
    </edge>
    <edge id=":J2_1" function="internal">
        <lane id=":J2_1_0" index="0" speed="25.00" length="3.32" shape="1346.18,-8.00 1349.50,-8.00"/>
        <lane id=":J2_1_1" index="1" speed="31.00" length="3.32" shape="1346.18,-4.80 1349.50,-4.80"/>
        <lane id=":J2_1_2" index="2" speed="34.00" length="3.32" shape="1346.18,-1.60 1349.50,-1.60"/>
    </edge>

    <edge id="E0" from="J0" to="J1" priority="-1">
        <lane id="E0_0" index="0" speed="25.00" length="450.50" shape="0.00,-8.00 450.50,-8.00"/>
        <lane id="E0_1" index="1" speed="31.00" length="450.50" shape="0.00,-4.80 450.50,-4.80"/>
        <lane id="E0_2" index="2" speed="34.00" length="450.50" shape="0.00,-1.60 450.50,-1.60"/>
    </edge>
    <edge id="E1" from="J1" to="J2" priority="-1">
        <lane id="E1_0" index="0" speed="23.00" length="892.37" acceleration="1" shape="453.82,-11.20 1346.18,-11.20"/>
        <lane id="E1_1" index="1" speed="25.00" length="892.37" shape="453.82,-8.00 1346.18,-8.00"/>
        <lane id="E1_2" index="2" speed="31.00" length="892.37" shape="453.82,-4.80 1346.18,-4.80"/>
        <lane id="E1_3" index="3" speed="34.00" length="892.37" shape="453.82,-1.60 1346.18,-1.60"/>
    </edge>
    <edge id="E2" from="J2" to="J3" priority="-1">
        <lane id="E2_0" index="0" speed="25.00" length="250.50" shape="1349.50,-8.00 1600.00,-8.00"/>
        <lane id="E2_1" index="1" speed="31.00" length="250.50" shape="1349.50,-4.80 1600.00,-4.80"/>
        <lane id="E2_2" index="2" speed="34.00" length="250.50" shape="1349.50,-1.60 1600.00,-1.60"/>
    </edge>
    <edge id="E3" from="J4" to="J1" priority="-1">
        <lane id="E3_0" index="0" speed="23.00" length="204.18" shape="250.31,-51.57 450.53,-11.53"/>
    </edge>
    <edge id="E4" from="J2" to="J5" priority="-1">
        <lane id="E4_0" index="0" speed="23.00" length="204.18" shape="1349.47,-11.53 1549.69,-51.57"/>
    </edge>

    <junction id="J0" type="dead_end" x="0.00" y="0.00" incLanes="" intLanes="" shape="0.00,0.00 0.00,-9.60"/>
    <junction id="J1" type="priority" x="500.00" y="0.00" incLanes="E3_0 E0_0 E0_1 E0_2" intLanes=":J1_0_0 :J1_1_0 :J1_1_1 :J1_1_2" shape="453.82,0.00 453.82,-12.80 452.71,-12.81 452.32,-12.84 451.94,-12.89 451.47,-12.97 450.85,-13.09 450.22,-9.96 450.50,-9.60 450.50,0.00">
        <request index="0" response="0000" foes="0000" cont="0"/>
        <request index="1" response="0000" foes="0000" cont="0"/>
        <request index="2" response="0000" foes="0000" cont="0"/>
        <request index="3" response="0000" foes="0000" cont="0"/>
    </junction>
    <junction id="J2" type="priority" x="1300.00" y="0.00" incLanes="E1_0 E1_1 E1_2 E1_3" intLanes=":J2_0_0 :J2_1_0 :J2_1_1 :J2_1_2" shape="1349.50,0.00 1349.50,-9.60 1349.78,-9.96 1349.15,-13.09 1348.06,-12.89 1347.68,-12.84 1347.29,-12.81 1346.82,-12.80 1346.18,-12.80 1346.18,0.00">
        <request index="0" response="0000" foes="0000" cont="0"/>
        <request index="1" response="0000" foes="0000" cont="0"/>
        <request index="2" response="0000" foes="0000" cont="0"/>
        <request index="3" response="0000" foes="0000" cont="0"/>
    </junction>
    <junction id="J3" type="dead_end" x="1600.00" y="0.00" incLanes="E2_0 E2_1 E2_2" intLanes="" shape="1600.00,-9.60 1600.00,0.00"/>
    <junction id="J4" type="dead_end" x="250.00" y="-50.00" incLanes="" intLanes="" shape="250.00,-50.00 250.63,-53.14"/>
    <junction id="J5" type="dead_end" x="1550.00" y="-50.00" incLanes="E4_0" intLanes="" shape="1549.37,-53.14 1550.00,-50.00"/>

    <connection from="E0" to="E1" fromLane="0" toLane="1" via=":J1_1_0" dir="s" state="M"/>
    <connection from="E0" to="E1" fromLane="1" toLane="2" via=":J1_1_1" dir="s" state="M"/>
    <connection from="E0" to="E1" fromLane="2" toLane="3" via=":J1_1_2" dir="s" state="M"/>
    <connection from="E1" to="E4" fromLane="0" toLane="0" via=":J2_0_0" dir="R" state="M"/>
    <connection from="E1" to="E2" fromLane="1" toLane="0" via=":J2_1_0" dir="s" state="M"/>
    <connection from="E1" to="E2" fromLane="2" toLane="1" via=":J2_1_1" dir="s" state="M"/>
    <connection from="E1" to="E2" fromLane="3" toLane="2" via=":J2_1_2" dir="s" state="M"/>
    <connection from="E3" to="E1" fromLane="0" toLane="0" via=":J1_0_0" dir="s" state="M"/>

    <connection from=":J1_0" to="E1" fromLane="0" toLane="0" dir="s" state="M"/>
    <connection from=":J1_1" to="E1" fromLane="0" toLane="1" dir="s" state="M"/>
    <connection from=":J1_1" to="E1" fromLane="1" toLane="2" dir="s" state="M"/>
    <connection from=":J1_1" to="E1" fromLane="2" toLane="3" dir="s" state="M"/>
    <connection from=":J2_0" to="E4" fromLane="0" toLane="0" dir="R" state="M"/>
    <connection from=":J2_1" to="E2" fromLane="0" toLane="0" dir="s" state="M"/>
    <connection from=":J2_1" to="E2" fromLane="1" toLane="1" dir="s" state="M"/>
    <connection from=":J2_1" to="E2" fromLane="2" toLane="2" dir="s" state="M"/>

</net>
